Version 4
SHEET 1 4840 2960
WIRE 592 -32 592 -48
WIRE 976 -32 592 -32
WIRE 1184 -32 976 -32
WIRE 592 80 592 -32
WIRE -896 96 -896 64
WIRE -784 96 -784 64
WIRE -656 96 -656 64
WIRE 544 96 464 96
WIRE -288 112 -352 112
WIRE -160 112 -208 112
WIRE 784 112 656 112
WIRE 832 112 832 96
WIRE 1072 112 880 112
WIRE 608 128 592 128
WIRE 592 192 592 176
WIRE 656 192 656 112
WIRE 656 192 592 192
WIRE 592 208 592 192
WIRE -896 224 -896 176
WIRE -784 224 -784 176
WIRE -656 224 -656 176
WIRE 464 224 464 96
WIRE 544 224 464 224
WIRE 608 256 592 256
WIRE 1184 272 1184 -32
WIRE 96 320 32 320
WIRE 192 320 96 320
WIRE 352 320 192 320
WIRE 464 320 464 224
WIRE 464 320 352 320
WIRE 592 320 592 304
WIRE 800 320 592 320
WIRE 864 320 864 160
WIRE 864 320 800 320
WIRE 880 320 864 320
WIRE 1104 320 880 320
WIRE 1296 320 1248 320
WIRE 1616 320 1296 320
WIRE 192 352 192 320
WIRE 592 368 592 320
WIRE 1600 368 1552 368
WIRE 2144 368 1680 368
WIRE 608 416 592 416
WIRE 96 432 96 320
WIRE 352 432 352 320
WIRE 800 432 800 320
WIRE 464 448 464 320
WIRE 544 448 464 448
WIRE 368 480 352 480
WIRE 592 480 592 464
WIRE 784 480 592 480
WIRE 928 480 880 480
WIRE 976 480 976 -32
WIRE 976 480 928 480
WIRE 592 496 592 480
WIRE 832 496 832 480
WIRE 48 512 -16 512
WIRE 96 512 96 480
WIRE 304 512 272 512
WIRE 608 544 592 544
WIRE 464 576 464 448
WIRE 544 576 464 576
WIRE 864 656 848 656
WIRE 848 704 848 656
WIRE 272 752 272 512
WIRE 704 752 272 752
WIRE 784 752 704 752
WIRE 1104 752 1104 320
WIRE 1104 752 928 752
WIRE 96 896 96 528
WIRE 192 896 192 416
WIRE 192 896 96 896
WIRE 352 896 352 528
WIRE 352 896 192 896
WIRE 592 896 592 592
WIRE 592 896 352 896
WIRE 848 896 848 800
WIRE 848 896 592 896
WIRE 1072 896 1072 112
WIRE 1072 896 848 896
WIRE 1184 896 1184 368
WIRE 1184 896 1072 896
WIRE 1552 896 1552 368
WIRE 1552 896 1184 896
WIRE 1664 896 1664 320
WIRE 1664 896 1552 896
WIRE 96 928 96 896
FLAG 592 -48 Vdd
IOPIN 592 -48 In
FLAG 352 320 Vm
FLAG 880 320 Vo
FLAG 864 656 V_width
IOPIN 864 656 In
FLAG 928 480 Vdd
IOPIN 928 480 In
FLAG -16 512 V_lk
FLAG 608 128 Vdd
FLAG 608 256 Vdd
FLAG 608 416 0
FLAG 608 544 0
FLAG 832 496 0
FLAG 832 96 Vdd
FLAG 592 480 B
FLAG 592 192 A
FLAG 704 752 U2_OUT
FLAG 1296 320 U1_OUT
FLAG 368 480 0
FLAG -896 224 0
FLAG -784 224 0
FLAG -656 224 0
FLAG -896 64 Vdd
FLAG -784 64 V_width
FLAG -656 64 V_lk
FLAG 32 320 Input_N1
IOPIN 32 320 In
FLAG -352 112 0
FLAG -160 112 Input_N1
FLAG 96 928 0
FLAG 2144 368 Output
IOPIN 2144 368 Out
SYMBOL cap 176 352 R0
SYMATTR InstName C1
SYMATTR Value 300n
SYMATTR SpiceLine Rser=33k Cpar=300n
SYMBOL CMOS_INV 1168 320 R0
SYMATTR InstName U1
SYMBOL CMOS_INV 864 752 M0
SYMATTR InstName U2
SYMBOL nmos4 48 432 R0
SYMATTR InstName M1
SYMATTR Value2 l=50n w=250n
SYMBOL pmos4 784 160 R270
SYMATTR InstName M7
SYMATTR Value2 l=200n w=400n
SYMBOL nmos4 304 432 R0
SYMATTR InstName M2
SYMATTR Value2 l=5u w=500u
SYMBOL nmos4 544 368 R0
SYMATTR InstName M3
SYMATTR Value2 l=200n w=250n
SYMBOL nmos4 544 496 R0
SYMATTR InstName M4
SYMATTR Value2 l=200n w=250n
SYMBOL pmos4 544 176 M180
SYMATTR InstName M5
SYMATTR Value2 l=200n w=400n
SYMBOL pmos4 544 304 M180
SYMATTR InstName M6
SYMATTR Value2 l=200n w=400n
SYMBOL nmos4 880 432 R90
SYMATTR InstName M8
SYMATTR Value2 l=200n w=250n
SYMBOL g2 1696 368 R90
SYMATTR InstName G1
SYMATTR Value 0.001
SYMBOL voltage -896 80 R0
SYMATTR InstName V1
SYMATTR Value 1
SYMATTR SpiceLine Rser=1meg
SYMBOL voltage -784 80 R0
SYMATTR InstName V2
SYMATTR Value 1.3
SYMATTR SpiceLine Rser=1meg
SYMBOL voltage -656 80 R0
SYMATTR InstName V3
SYMATTR Value 0.8
SYMATTR SpiceLine Rser=1meg
SYMBOL current -288 112 R270
WINDOW 0 32 40 VTop 2
WINDOW 3 -32 40 VBottom 2
SYMATTR InstName I4
SYMATTR Value PULSE(0 1m 5m 1u 1u 0.11m 1m 1)
TEXT -888 -104 Left 2 !.tran 10m\n.include BSIM4_models.txt
RECTANGLE Normal 424 48 1116 612 2
